ROMS/TOMS Framework: Jan 27, 2014
===================

Copyright (c) 2002-2014 The ROMS/TOMS Group
  Licensed under a MIT/X style license
  See License_ROMS.txt

svn: $HeadURL: https://www.myroms.org/svn/cstm/trunk/ROMS/Version $
svn: $LastChangedBy: arango $
svn: $LastChangedRevision: 2329 $
svn: $LastChangedDate: 2014-01-27 18:29:59 -0500 (Mon, 27 Jan 2014) $
